<?xml version="1.0" encoding="utf-8"?>
<rdf:RDF xmlns:rdf="http://www.w3.org/1999/02/22-rdf-syntax-ns#">
  <rdf:Description rdf:about="https://w3id.org/steel/ProcessOntology/FailureStrainIdentifier">
    <rdf:type rdf:resource="http://www.w3.org/2004/02/skos/core#Concept"/>
  </rdf:Description>
  <rdf:Description rdf:about="https://w3id.org/steel/ProcessOntology/FailureStrainIdentifier">
    <rdf:type rdf:resource="http://www.w3.org/2002/07/owl#Class"/>
  </rdf:Description>
  <rdf:Description rdf:about="https://w3id.org/steel/ProcessOntology/FailureStrainIdentifier">
    <ns0:comment xmlns:ns0="http://www.w3.org/2000/01/rdf-schema#" xml:lang="en">The load curve ID defines plastic failure strain as a function of triaxiality. The table ID defines for each Lode parameter a load curve ID giving the plastic failure strain versus triaxiality for that Lode parameter</ns0:comment>
  </rdf:Description>
  <rdf:Description rdf:about="https://w3id.org/steel/ProcessOntology/FailureStrainIdentifier">
    <ns0:label xmlns:ns0="http://www.w3.org/2000/01/rdf-schema#" xml:lang="en">FailureStrainIdentifier</ns0:label>
  </rdf:Description>
  <rdf:Description rdf:about="https://w3id.org/steel/ProcessOntology/FailureStrainIdentifier">
    <ns0:subClassOf xmlns:ns0="http://www.w3.org/2000/01/rdf-schema#">https://material-digital.de/pmdco/ValueObject</ns0:subClassOf>
  </rdf:Description>
  <rdf:Description rdf:about="https://w3id.org/steel/ProcessOntology/FailureStrainIdentifier">
    <ns0:altlabel xmlns:ns0="http://www.w3.org/2004/02/skos/core#" xml:lang="en">LCF</ns0:altlabel>
  </rdf:Description>
  <rdf:Description rdf:about="https://w3id.org/steel/ProcessOntology/FailureStrainIdentifier">
    <ns0:preflabel xmlns:ns0="http://www.w3.org/2004/02/skos/core#" xml:lang="en">FailureStrainIdentifier</ns0:preflabel>
  </rdf:Description>
  <rdf:Description rdf:about="https://w3id.org/steel/ProcessOntology/FailureStrainIdentifier">
    <ns0:UnitLabel xmlns:ns0="https://w3id.org/steel/ProcessOntology/">-</ns0:UnitLabel>
  </rdf:Description>
  <rdf:Description rdf:about="https://w3id.org/steel/ProcessOntology/FailureStrainIdentifier">
    <ns0:hasLabelSourceEn xmlns:ns0="https://w3id.org/steel/ProcessOntology/">LS-DYNA_Manual_Volume_2</ns0:hasLabelSourceEn>
  </rdf:Description>
</rdf:RDF>
