<?xml version="1.0" encoding="utf-8"?>
<rdf:RDF xmlns:rdf="http://www.w3.org/1999/02/22-rdf-syntax-ns#">
  <rdf:Description rdf:about="https://w3id.org/steel/ProcessOntology/FailureTreatment">
    <rdf:type rdf:resource="http://www.w3.org/2004/02/skos/core#Concept"/>
  </rdf:Description>
  <rdf:Description rdf:about="https://w3id.org/steel/ProcessOntology/FailureTreatment">
    <rdf:type rdf:resource="http://www.w3.org/2002/07/owl#Class"/>
  </rdf:Description>
  <rdf:Description rdf:about="https://w3id.org/steel/ProcessOntology/FailureTreatment">
    <ns0:label xmlns:ns0="http://www.w3.org/2000/01/rdf-schema#" xml:lang="en">FailureTreatment</ns0:label>
  </rdf:Description>
  <rdf:Description rdf:about="https://w3id.org/steel/ProcessOntology/FailureTreatment">
    <ns0:subClassOf xmlns:ns0="http://www.w3.org/2000/01/rdf-schema#" rdf:resource="https://material-digital.de/pmdco/ValueObject"/>
  </rdf:Description>
  <rdf:Description rdf:about="https://w3id.org/steel/ProcessOntology/FailureTreatment">
    <ns0:description xmlns:ns0="http://purl.org/dc/terms/" xml:lang="en">Descibes the treatment of failure:
&lt;0…User defined failure subroutine, matusr_24 in dyn21.F
=0…no failure is taken into account
&gt;0…constant failure strain</ns0:description>
  </rdf:Description>
  <rdf:Description rdf:about="https://w3id.org/steel/ProcessOntology/FailureTreatment">
    <ns0:altlabel xmlns:ns0="http://www.w3.org/2004/02/skos/core#" xml:lang="en">FAIL</ns0:altlabel>
  </rdf:Description>
  <rdf:Description rdf:about="https://w3id.org/steel/ProcessOntology/FailureTreatment">
    <ns0:preflabel xmlns:ns0="http://www.w3.org/2004/02/skos/core#" xml:lang="en">FailureTreatment</ns0:preflabel>
  </rdf:Description>
  <rdf:Description rdf:about="https://w3id.org/steel/ProcessOntology/FailureTreatment">
    <ns0:hasExampleData xmlns:ns0="https://w3id.org/steel/ProcessOntology/">1.17</ns0:hasExampleData>
  </rdf:Description>
  <rdf:Description rdf:about="https://w3id.org/steel/ProcessOntology/FailureTreatment">
    <ns0:hasLabelSource xmlns:ns0="https://w3id.org/steel/ProcessOntology/" xml:lang="en">LS-DYNA_Manual_Volume_2</ns0:hasLabelSource>
  </rdf:Description>
  <rdf:Description rdf:about="https://w3id.org/steel/ProcessOntology/FailureTreatment">
    <ns0:hasShortId xmlns:ns0="https://w3id.org/steel/ProcessOntology/">FailureTreatment</ns0:hasShortId>
  </rdf:Description>
  <rdf:Description rdf:about="https://w3id.org/steel/ProcessOntology/FailureTreatment">
    <ns0:hasTypicalUnit xmlns:ns0="https://w3id.org/steel/ProcessOntology/" rdf:resource="https://qudt.org/vocab/unit/UNITLESS"/>
  </rdf:Description>
  <rdf:Description rdf:about="https://w3id.org/steel/ProcessOntology/FailureTreatment">
    <ns0:hasTypicalUnitLabel xmlns:ns0="https://w3id.org/steel/ProcessOntology/">1</ns0:hasTypicalUnitLabel>
  </rdf:Description>
</rdf:RDF>
