<?xml version="1.0" encoding="utf-8"?>
<rdf:RDF xmlns:rdf="http://www.w3.org/1999/02/22-rdf-syntax-ns#">
  <rdf:Description rdf:about="https://w3id.org/steel/ProcessOntology/StrainRateScaleParameterC">
    <rdf:type rdf:resource="http://www.w3.org/2002/07/owl#Class"/>
  </rdf:Description>
  <rdf:Description rdf:about="https://w3id.org/steel/ProcessOntology/StrainRateScaleParameterC">
    <rdf:type rdf:resource="http://www.w3.org/2004/02/skos/core#Concept"/>
  </rdf:Description>
  <rdf:Description rdf:about="https://w3id.org/steel/ProcessOntology/StrainRateScaleParameterC">
    <ns0:label xmlns:ns0="http://www.w3.org/2000/01/rdf-schema#" xml:lang="en">StrainRateScaleParameterC</ns0:label>
  </rdf:Description>
  <rdf:Description rdf:about="https://w3id.org/steel/ProcessOntology/StrainRateScaleParameterC">
    <ns0:subClassOf xmlns:ns0="http://www.w3.org/2000/01/rdf-schema#">https://material-digital.de/pmdco/ValueObject</ns0:subClassOf>
  </rdf:Description>
  <rdf:Description rdf:about="https://w3id.org/steel/ProcessOntology/StrainRateScaleParameterC">
    <ns0:description xmlns:ns0="http://purl.org/dc/terms/" xml:lang="en">Parameter C for strain rate approach for using the Cowper and Symonds model which scales the yield stress with the factor: 1+(epsDot/C)^(1/P)</ns0:description>
  </rdf:Description>
  <rdf:Description rdf:about="https://w3id.org/steel/ProcessOntology/StrainRateScaleParameterC">
    <ns0:altlabel xmlns:ns0="http://www.w3.org/2004/02/skos/core#" xml:lang="en">C</ns0:altlabel>
  </rdf:Description>
  <rdf:Description rdf:about="https://w3id.org/steel/ProcessOntology/StrainRateScaleParameterC">
    <ns0:preflabel xmlns:ns0="http://www.w3.org/2004/02/skos/core#" xml:lang="en">StrainRateScaleParameterC</ns0:preflabel>
  </rdf:Description>
  <rdf:Description rdf:about="https://w3id.org/steel/ProcessOntology/StrainRateScaleParameterC">
    <ns0:hasLabelSource xmlns:ns0="https://w3id.org/steel/ProcessOntology/" xml:lang="en">LS-DYNA_Manual_Volume_2</ns0:hasLabelSource>
  </rdf:Description>
  <rdf:Description rdf:about="https://w3id.org/steel/ProcessOntology/StrainRateScaleParameterC">
    <ns0:hasLabelSourceEn xmlns:ns0="https://w3id.org/steel/ProcessOntology/">LS-DYNA_Manual_Volume_2</ns0:hasLabelSourceEn>
  </rdf:Description>
  <rdf:Description rdf:about="https://w3id.org/steel/ProcessOntology/StrainRateScaleParameterC">
    <ns0:hasTypicalUnitLabel xmlns:ns0="https://w3id.org/steel/ProcessOntology/">1</ns0:hasTypicalUnitLabel>
  </rdf:Description>
</rdf:RDF>
