<?xml version="1.0" encoding="utf-8"?>
<rdf:RDF xmlns:rdf="http://www.w3.org/1999/02/22-rdf-syntax-ns#">
  <rdf:Description rdf:about="https://w3id.org/steel/ProcessOntology/DamageTreatment">
    <rdf:type rdf:resource="http://www.w3.org/2004/02/skos/core#Concept"/>
  </rdf:Description>
  <rdf:Description rdf:about="https://w3id.org/steel/ProcessOntology/DamageTreatment">
    <rdf:type rdf:resource="http://www.w3.org/2002/07/owl#Class"/>
  </rdf:Description>
  <rdf:Description rdf:about="https://w3id.org/steel/ProcessOntology/DamageTreatment">
    <ns0:label xmlns:ns0="http://www.w3.org/2000/01/rdf-schema#" xml:lang="en">DamageTreatment</ns0:label>
  </rdf:Description>
  <rdf:Description rdf:about="https://w3id.org/steel/ProcessOntology/DamageTreatment">
    <ns0:subClassOf xmlns:ns0="http://www.w3.org/2000/01/rdf-schema#" rdf:resource="https://material-digital.de/pmdco/ValueObject"/>
  </rdf:Description>
  <rdf:Description rdf:about="https://w3id.org/steel/ProcessOntology/DamageTreatment">
    <ns0:description xmlns:ns0="http://purl.org/dc/terms/" xml:lang="en">interpreted digit-wise as follows: DTYP = [????] = ??+10×??
M.EQ.0: Damage is accumulated, but there is no coupling to flow stress and no failure.
M.EQ.1: Damage is accumulated, and element failure occurs for ?? = 1. Coupling of damage to flow stress depending on parameters.
N.EQ.0: Equivalent plastic strain is the driving quantity for the damage.
N.GT.0: The Nth additional history variable is the driving quantity for damage.</ns0:description>
  </rdf:Description>
  <rdf:Description rdf:about="https://w3id.org/steel/ProcessOntology/DamageTreatment">
    <ns0:altlabel xmlns:ns0="http://www.w3.org/2004/02/skos/core#" xml:lang="en">DTYP</ns0:altlabel>
  </rdf:Description>
  <rdf:Description rdf:about="https://w3id.org/steel/ProcessOntology/DamageTreatment">
    <ns0:preflabel xmlns:ns0="http://www.w3.org/2004/02/skos/core#" xml:lang="en">DamageTreatment</ns0:preflabel>
  </rdf:Description>
  <rdf:Description rdf:about="https://w3id.org/steel/ProcessOntology/DamageTreatment">
    <ns0:hasExampleData xmlns:ns0="https://w3id.org/steel/ProcessOntology/">1</ns0:hasExampleData>
  </rdf:Description>
  <rdf:Description rdf:about="https://w3id.org/steel/ProcessOntology/DamageTreatment">
    <ns0:hasLabelSource xmlns:ns0="https://w3id.org/steel/ProcessOntology/" xml:lang="en">LS-DYNA_Manual_Volume_2</ns0:hasLabelSource>
  </rdf:Description>
  <rdf:Description rdf:about="https://w3id.org/steel/ProcessOntology/DamageTreatment">
    <ns0:hasShortId xmlns:ns0="https://w3id.org/steel/ProcessOntology/">DamageTreatment</ns0:hasShortId>
  </rdf:Description>
  <rdf:Description rdf:about="https://w3id.org/steel/ProcessOntology/DamageTreatment">
    <ns0:hasTypicalUnit xmlns:ns0="https://w3id.org/steel/ProcessOntology/" rdf:resource="https://qudt.org/vocab/unit/UNITLESS"/>
  </rdf:Description>
  <rdf:Description rdf:about="https://w3id.org/steel/ProcessOntology/DamageTreatment">
    <ns0:hasTypicalUnitLabel xmlns:ns0="https://w3id.org/steel/ProcessOntology/">1</ns0:hasTypicalUnitLabel>
  </rdf:Description>
</rdf:RDF>
