<?xml version="1.0" encoding="utf-8"?>
<rdf:RDF xmlns:rdf="http://www.w3.org/1999/02/22-rdf-syntax-ns#">
  <rdf:Description rdf:about="https://w3id.org/steel/ProcessOntology/FailureCriteriaTypeAdd">
    <rdf:type rdf:resource="http://www.w3.org/2002/07/owl#Class"/>
  </rdf:Description>
  <rdf:Description rdf:about="https://w3id.org/steel/ProcessOntology/FailureCriteriaTypeAdd">
    <rdf:type rdf:resource="http://www.w3.org/2004/02/skos/core#Concept"/>
  </rdf:Description>
  <rdf:Description rdf:about="https://w3id.org/steel/ProcessOntology/FailureCriteriaTypeAdd">
    <ns0:label xmlns:ns0="http://www.w3.org/2000/01/rdf-schema#" xml:lang="en">FailureCriteriaTypeAdd</ns0:label>
  </rdf:Description>
  <rdf:Description rdf:about="https://w3id.org/steel/ProcessOntology/FailureCriteriaTypeAdd">
    <ns0:subClassOf xmlns:ns0="http://www.w3.org/2000/01/rdf-schema#" rdf:resource="https://material-digital.de/pmdco/ValueObject"/>
  </rdf:Description>
  <rdf:Description rdf:about="https://w3id.org/steel/ProcessOntology/FailureCriteriaTypeAdd">
    <ns0:description xmlns:ns0="http://purl.org/dc/terms/" xml:lang="en">Flag for additional failure criterion F2:
=0.0: off (default)
=1.0: on; An additional, load-path independent, failure criterion can be invoked, where the current state of plastic strain is used</ns0:description>
  </rdf:Description>
  <rdf:Description rdf:about="https://w3id.org/steel/ProcessOntology/FailureCriteriaTypeAdd">
    <ns0:altlabel xmlns:ns0="http://www.w3.org/2004/02/skos/core#" xml:lang="en">FAILOPT</ns0:altlabel>
  </rdf:Description>
  <rdf:Description rdf:about="https://w3id.org/steel/ProcessOntology/FailureCriteriaTypeAdd">
    <ns0:preflabel xmlns:ns0="http://www.w3.org/2004/02/skos/core#" xml:lang="en">FailureCriteriaTypeAdd</ns0:preflabel>
  </rdf:Description>
  <rdf:Description rdf:about="https://w3id.org/steel/ProcessOntology/FailureCriteriaTypeAdd">
    <ns0:hasExampleData xmlns:ns0="https://w3id.org/steel/ProcessOntology/">0</ns0:hasExampleData>
  </rdf:Description>
  <rdf:Description rdf:about="https://w3id.org/steel/ProcessOntology/FailureCriteriaTypeAdd">
    <ns0:hasLabelSource xmlns:ns0="https://w3id.org/steel/ProcessOntology/" xml:lang="en">LS-DYNA_Manual_Volume_2</ns0:hasLabelSource>
  </rdf:Description>
  <rdf:Description rdf:about="https://w3id.org/steel/ProcessOntology/FailureCriteriaTypeAdd">
    <ns0:hasShortId xmlns:ns0="https://w3id.org/steel/ProcessOntology/">FailureCriteriaTypeAdd</ns0:hasShortId>
  </rdf:Description>
  <rdf:Description rdf:about="https://w3id.org/steel/ProcessOntology/FailureCriteriaTypeAdd">
    <ns0:hasTypicalUnitLabel xmlns:ns0="https://w3id.org/steel/ProcessOntology/">-</ns0:hasTypicalUnitLabel>
  </rdf:Description>
</rdf:RDF>
