<?xml version="1.0" encoding="utf-8"?>
<rdf:RDF xmlns:rdf="http://www.w3.org/1999/02/22-rdf-syntax-ns#">
  <rdf:Description rdf:about="https://w3id.org/steel/ProcessOntology/MAT_ADD_DAMAGE_GISSMO">
    <rdf:type rdf:resource="http://www.w3.org/2004/02/skos/core#Concept"/>
  </rdf:Description>
  <rdf:Description rdf:about="https://w3id.org/steel/ProcessOntology/MAT_ADD_DAMAGE_GISSMO">
    <rdf:type rdf:resource="http://www.w3.org/2002/07/owl#Class"/>
  </rdf:Description>
  <rdf:Description rdf:about="https://w3id.org/steel/ProcessOntology/MAT_ADD_DAMAGE_GISSMO">
    <ns0:label xmlns:ns0="http://www.w3.org/2000/01/rdf-schema#" xml:lang="en">MAT_ADD_DAMAGE_GISSMO</ns0:label>
  </rdf:Description>
  <rdf:Description rdf:about="https://w3id.org/steel/ProcessOntology/MAT_ADD_DAMAGE_GISSMO">
    <ns0:subClassOf xmlns:ns0="http://www.w3.org/2000/01/rdf-schema#" rdf:resource="https://material-digital.de/pmdco/ValueObject"/>
  </rdf:Description>
  <rdf:Description rdf:about="https://w3id.org/steel/ProcessOntology/MAT_ADD_DAMAGE_GISSMO">
    <ns0:preflabel xmlns:ns0="http://www.w3.org/2004/02/skos/core#" xml:lang="en">MAT_ADD_DAMAGE_GISSMO</ns0:preflabel>
  </rdf:Description>
  <rdf:Description rdf:about="https://w3id.org/steel/ProcessOntology/MAT_ADD_DAMAGE_GISSMO">
    <ns0:hasLabelSource xmlns:ns0="https://w3id.org/steel/ProcessOntology/" xml:lang="en">LS-DYNA_Manual_Volume_2</ns0:hasLabelSource>
  </rdf:Description>
</rdf:RDF>
