<?xml version="1.0" encoding="utf-8"?>
<rdf:RDF xmlns:rdf="http://www.w3.org/1999/02/22-rdf-syntax-ns#">
  <rdf:Description rdf:about="https://w3id.org/steel/ProcessOntology/MinTimeStep4ElementDel">
    <rdf:type rdf:resource="http://www.w3.org/2002/07/owl#Class"/>
  </rdf:Description>
  <rdf:Description rdf:about="https://w3id.org/steel/ProcessOntology/MinTimeStep4ElementDel">
    <rdf:type rdf:resource="http://www.w3.org/2004/02/skos/core#Concept"/>
  </rdf:Description>
  <rdf:Description rdf:about="https://w3id.org/steel/ProcessOntology/MinTimeStep4ElementDel">
    <ns0:comment xmlns:ns0="http://www.w3.org/2000/01/rdf-schema#" xml:lang="en">Minimum time step size for automatic element deletion</ns0:comment>
  </rdf:Description>
  <rdf:Description rdf:about="https://w3id.org/steel/ProcessOntology/MinTimeStep4ElementDel">
    <ns0:label xmlns:ns0="http://www.w3.org/2000/01/rdf-schema#" xml:lang="en">MinTimeStep4ElementDel</ns0:label>
  </rdf:Description>
  <rdf:Description rdf:about="https://w3id.org/steel/ProcessOntology/MinTimeStep4ElementDel">
    <ns0:subClassOf xmlns:ns0="http://www.w3.org/2000/01/rdf-schema#">https://material-digital.de/pmdco/ValueObject</ns0:subClassOf>
  </rdf:Description>
  <rdf:Description rdf:about="https://w3id.org/steel/ProcessOntology/MinTimeStep4ElementDel">
    <ns0:altlabel xmlns:ns0="http://www.w3.org/2004/02/skos/core#" xml:lang="en">TDEL</ns0:altlabel>
  </rdf:Description>
  <rdf:Description rdf:about="https://w3id.org/steel/ProcessOntology/MinTimeStep4ElementDel">
    <ns0:preflabel xmlns:ns0="http://www.w3.org/2004/02/skos/core#" xml:lang="en">MinTimeStep4ElementDel</ns0:preflabel>
  </rdf:Description>
  <rdf:Description rdf:about="https://w3id.org/steel/ProcessOntology/MinTimeStep4ElementDel">
    <ns0:hasExampleData xmlns:ns0="https://w3id.org/steel/ProcessOntology/">0.000000</ns0:hasExampleData>
  </rdf:Description>
  <rdf:Description rdf:about="https://w3id.org/steel/ProcessOntology/MinTimeStep4ElementDel">
    <ns0:hasLabelSource xmlns:ns0="https://w3id.org/steel/ProcessOntology/" xml:lang="en">LS-DYNA_Manual_Volume_2</ns0:hasLabelSource>
  </rdf:Description>
  <rdf:Description rdf:about="https://w3id.org/steel/ProcessOntology/MinTimeStep4ElementDel">
    <ns0:hasLabelSourceEn xmlns:ns0="https://w3id.org/steel/ProcessOntology/">LS-DYNA_Manual_Volume_2</ns0:hasLabelSourceEn>
  </rdf:Description>
  <rdf:Description rdf:about="https://w3id.org/steel/ProcessOntology/MinTimeStep4ElementDel">
    <ns0:hasTypicalUnitLabel xmlns:ns0="https://w3id.org/steel/ProcessOntology/">s</ns0:hasTypicalUnitLabel>
  </rdf:Description>
</rdf:RDF>
