<?xml version="1.0" encoding="utf-8"?>
<rdf:RDF xmlns:rdf="http://www.w3.org/1999/02/22-rdf-syntax-ns#">
  <rdf:Description rdf:about="https://w3id.org/steel/ProcessOntology/StrainRateFormulationFlag">
    <rdf:type rdf:resource="http://www.w3.org/2002/07/owl#Class"/>
  </rdf:Description>
  <rdf:Description rdf:about="https://w3id.org/steel/ProcessOntology/StrainRateFormulationFlag">
    <rdf:type rdf:resource="http://www.w3.org/2004/02/skos/core#Concept"/>
  </rdf:Description>
  <rdf:Description rdf:about="https://w3id.org/steel/ProcessOntology/StrainRateFormulationFlag">
    <ns0:label xmlns:ns0="http://www.w3.org/2000/01/rdf-schema#" xml:lang="en">StrainRateFormulationFlag</ns0:label>
  </rdf:Description>
  <rdf:Description rdf:about="https://w3id.org/steel/ProcessOntology/StrainRateFormulationFlag">
    <ns0:subClassOf xmlns:ns0="http://www.w3.org/2000/01/rdf-schema#" rdf:resource="https://material-digital.de/pmdco/ValueObject"/>
  </rdf:Description>
  <rdf:Description rdf:about="https://w3id.org/steel/ProcessOntology/StrainRateFormulationFlag">
    <ns0:description xmlns:ns0="http://purl.org/dc/terms/" xml:lang="en">Flag which determines the treatment of strain rate to evaluate yielding:
=-1.0: Cowper-Symonds with effective deviatoric rate rather than total
=0.0: Scale yield stress (default)
=1.0: Viscoplastic formulation
=3.0: Same as VP = 0, but with filtered effective total strain rates</ns0:description>
  </rdf:Description>
  <rdf:Description rdf:about="https://w3id.org/steel/ProcessOntology/StrainRateFormulationFlag">
    <ns0:altlabel xmlns:ns0="http://www.w3.org/2004/02/skos/core#" xml:lang="en">VP</ns0:altlabel>
  </rdf:Description>
  <rdf:Description rdf:about="https://w3id.org/steel/ProcessOntology/StrainRateFormulationFlag">
    <ns0:preflabel xmlns:ns0="http://www.w3.org/2004/02/skos/core#" xml:lang="en">StrainRateFormulationFlag</ns0:preflabel>
  </rdf:Description>
  <rdf:Description rdf:about="https://w3id.org/steel/ProcessOntology/StrainRateFormulationFlag">
    <ns0:hasExampleData xmlns:ns0="https://w3id.org/steel/ProcessOntology/">0</ns0:hasExampleData>
  </rdf:Description>
  <rdf:Description rdf:about="https://w3id.org/steel/ProcessOntology/StrainRateFormulationFlag">
    <ns0:hasLabelSource xmlns:ns0="https://w3id.org/steel/ProcessOntology/" xml:lang="en">LS-DYNA_Manual_Volume_2</ns0:hasLabelSource>
  </rdf:Description>
</rdf:RDF>
